Version 4
SHEET 1 1764 1132
WIRE -224 -144 -368 -144
WIRE -368 -128 -368 -144
WIRE -48 -112 -80 -112
WIRE 48 -112 16 -112
WIRE -224 -80 -256 -80
WIRE -256 0 -256 -80
WIRE -256 0 -368 0
WIRE -368 32 -368 0
WIRE -112 32 -240 32
WIRE -32 32 -112 32
WIRE 176 32 -32 32
WIRE 224 32 176 32
WIRE 352 32 304 32
WIRE -112 48 -112 32
WIRE -32 64 -32 32
WIRE 544 112 464 112
WIRE -240 160 -240 32
WIRE -112 208 -112 128
WIRE -112 208 -176 208
WIRE -32 208 -32 128
WIRE -32 208 -112 208
WIRE 80 208 -32 208
WIRE 544 224 544 192
WIRE 672 224 544 224
WIRE 544 240 544 224
WIRE 80 256 80 208
WIRE 176 304 176 32
WIRE 176 304 144 304
WIRE 240 304 176 304
WIRE 320 304 304 304
WIRE 464 304 464 112
WIRE 464 304 448 304
WIRE -240 352 -240 256
WIRE 80 352 -240 352
WIRE 544 352 544 320
WIRE 544 352 80 352
WIRE 544 368 544 352
FLAG 352 112 0
FLAG 544 368 0
FLAG -368 -48 0
FLAG -368 112 0
FLAG 672 224 Out
IOPIN 672 224 Out
FLAG 48 -32 0
SYMBOL npn 144 256 M0
SYMATTR InstName Q1
SYMATTR Value 2N3904
SYMBOL npn -176 160 M0
SYMATTR InstName Q2
SYMATTR Value 2N3904
SYMBOL ind2 -128 32 R0
SYMATTR InstName L1
SYMATTR Value 2m
SYMATTR Type ind
SYMBOL cap -48 64 R0
SYMATTR InstName C1
SYMATTR Value 12.665p
SYMBOL voltage 352 16 R0
WINDOW 123 0 0 Left 2
WINDOW 39 0 0 Left 2
SYMATTR InstName V1
SYMATTR Value 4.5
SYMBOL res 320 16 R90
WINDOW 0 0 56 VBottom 2
WINDOW 3 32 56 VTop 2
SYMATTR InstName R2
SYMATTR Value 22k
SYMBOL res 528 96 R0
SYMATTR InstName R3
SYMATTR Value 1k
SYMBOL res 528 224 R0
SYMATTR InstName R4
SYMATTR Value 9k
SYMBOL cap 304 288 R90
WINDOW 0 0 32 VBottom 2
WINDOW 3 32 32 VTop 2
SYMATTR InstName C2
SYMATTR Value .22µ
SYMBOL SpecialFunctions\\modulate -224 -144 R0
WINDOW 3 165 -32 Left 2
SYMATTR Value space=975000 mark=1250000
SYMATTR InstName Antenna
SYMBOL voltage -368 -144 R0
WINDOW 3 -267 51 Left 2
WINDOW 123 0 0 Left 0
WINDOW 39 0 0 Left 0
SYMATTR Value SINE(0.5 0.5 10k)
SYMATTR InstName V2
SYMBOL voltage -368 16 R0
WINDOW 123 0 0 Left 0
WINDOW 39 0 0 Left 0
SYMATTR InstName V3
SYMATTR Value 100µ
SYMBOL ind2 32 -128 R0
SYMATTR InstName L2
SYMATTR Value 10µ
SYMATTR Type ind
SYMBOL cap 16 -128 R90
WINDOW 0 0 32 VBottom 2
WINDOW 3 32 32 VTop 2
SYMATTR InstName C3
SYMATTR Value 10p
SYMBOL LM386EE 384 352 R0
SYMATTR InstName U1
TEXT 240 -72 Left 2 !.tran 2m
TEXT -360 -264 Left 3 ;27MHz CB Radio Receiver Circuit
TEXT -200 -16 Left 2 !K L1 L2 .1
